9893171
  -OEChem-04232315323D

 66 70  0     0  0  0  0  0  0999 V2000
   -5.2363    0.1718   -2.8918 Cl  0  0  0  0  0  0  0  0  0  0  0  0
    2.8668    2.5553   -0.6888 O   0  0  0  0  0  0  0  0  0  0  0  0
    5.8486   -3.6556    1.6063 O   0  0  0  0  0  0  0  0  0  0  0  0
   -1.0589    0.3057   -2.0802 O   0  0  0  0  0  0  0  0  0  0  0  0
   -3.6212   -0.9025    1.9070 O   0  0  0  0  0  0  0  0  0  0  0  0
   -5.4852   -2.3851    2.2950 O   0  0  0  0  0  0  0  0  0  0  0  0
    5.1509    0.9432   -0.1553 N   0  0  0  0  0  0  0  0  0  0  0  0
    5.9370   -1.7843    0.2330 N   0  0  0  0  0  0  0  0  0  0  0  0
   -3.2253    0.5263   -0.6030 N   0  0  0  0  0  0  0  0  0  0  0  0
   -1.0770    2.9411    1.9762 N   0  0  0  0  0  0  0  0  0  0  0  0
   -3.1126    1.8243    1.3313 N   0  0  0  0  0  0  0  0  0  0  0  0
   -6.4755   -2.0912    0.1487 N   0  0  0  0  0  0  0  0  0  0  0  0
    6.5395    0.5268   -0.4001 C   0  0  0  0  0  0  0  0  0  0  0  0
    4.5569    0.1423    0.9250 C   0  0  0  0  0  0  0  0  0  0  0  0
    6.6098   -0.9556   -0.7715 C   0  0  0  0  0  0  0  0  0  0  0  0
    4.5849   -1.3450    0.5747 C   0  0  0  0  0  0  0  0  0  0  0  0
    5.0916    2.3678    0.1693 C   0  0  0  0  0  0  0  0  0  0  0  0
    3.6619    2.7917    0.4657 C   0  0  0  0  0  0  0  0  0  0  0  0
    6.4345   -2.9751    0.7606 C   0  0  0  0  0  0  0  0  0  0  0  0
    7.7777   -3.4302    0.2482 C   0  0  0  0  0  0  0  0  0  0  0  0
    1.5494    2.2416   -0.4781 C   0  0  0  0  0  0  0  0  0  0  0  0
   -1.1228    1.6216   -0.0257 C   0  0  0  0  0  0  0  0  0  0  0  0
    0.8763    1.4242   -1.3794 C   0  0  0  0  0  0  0  0  0  0  0  0
   -0.4610    1.1119   -1.1563 C   0  0  0  0  0  0  0  0  0  0  0  0
    0.8842    2.7446    0.6439 C   0  0  0  0  0  0  0  0  0  0  0  0
   -0.4538    2.4480    0.8917 C   0  0  0  0  0  0  0  0  0  0  0  0
   -2.4583    1.3477    0.2555 C   0  0  0  0  0  0  0  0  0  0  0  0
   -0.4954   -0.9900   -2.2683 C   0  0  0  0  0  0  0  0  0  0  0  0
   -4.3104   -0.3371   -0.3726 C   0  0  0  0  0  0  0  0  0  0  0  0
   -1.5350   -2.0438   -1.9180 C   0  0  0  0  0  0  0  0  0  0  0  0
   -0.0152   -1.1235   -3.7054 C   0  0  0  0  0  0  0  0  0  0  0  0
   -4.4442   -0.9845    0.8334 C   0  0  0  0  0  0  0  0  0  0  0  0
   -2.3724    2.6024    2.1372 C   0  0  0  0  0  0  0  0  0  0  0  0
   -5.5069   -1.8213    1.0366 C   0  0  0  0  0  0  0  0  0  0  0  0
   -5.2855   -0.5747   -1.3402 C   0  0  0  0  0  0  0  0  0  0  0  0
   -4.2841   -1.7910    2.8308 C   0  0  0  0  0  0  0  0  0  0  0  0
   -6.3332   -1.4476   -1.0355 C   0  0  0  0  0  0  0  0  0  0  0  0
    6.9660    1.1102   -1.2247 H   0  0  0  0  0  0  0  0  0  0  0  0
    7.1590    0.7089    0.4884 H   0  0  0  0  0  0  0  0  0  0  0  0
    5.0863    0.3101    1.8722 H   0  0  0  0  0  0  0  0  0  0  0  0
    3.4994    0.3686    1.0820 H   0  0  0  0  0  0  0  0  0  0  0  0
    7.6558   -1.2432   -0.8964 H   0  0  0  0  0  0  0  0  0  0  0  0
    6.1043   -1.1366   -1.7280 H   0  0  0  0  0  0  0  0  0  0  0  0
    4.1873   -1.9308    1.4099 H   0  0  0  0  0  0  0  0  0  0  0  0
    3.9496   -1.5476   -0.2968 H   0  0  0  0  0  0  0  0  0  0  0  0
    5.4565    2.9401   -0.6926 H   0  0  0  0  0  0  0  0  0  0  0  0
    5.7289    2.6121    1.0284 H   0  0  0  0  0  0  0  0  0  0  0  0
    3.2874    2.3259    1.3833 H   0  0  0  0  0  0  0  0  0  0  0  0
    3.6626    3.8744    0.6461 H   0  0  0  0  0  0  0  0  0  0  0  0
    8.0166   -4.4097    0.6739 H   0  0  0  0  0  0  0  0  0  0  0  0
    7.7568   -3.5300   -0.8403 H   0  0  0  0  0  0  0  0  0  0  0  0
    8.5545   -2.7245    0.5537 H   0  0  0  0  0  0  0  0  0  0  0  0
    1.4070    1.0551   -2.2516 H   0  0  0  0  0  0  0  0  0  0  0  0
    1.3831    3.4159    1.3398 H   0  0  0  0  0  0  0  0  0  0  0  0
    0.3642   -1.1554   -1.6043 H   0  0  0  0  0  0  0  0  0  0  0  0
   -3.0754    0.7300   -1.5875 H   0  0  0  0  0  0  0  0  0  0  0  0
   -1.8063   -1.9778   -0.8599 H   0  0  0  0  0  0  0  0  0  0  0  0
   -1.1556   -3.0529   -2.1070 H   0  0  0  0  0  0  0  0  0  0  0  0
   -2.4516   -1.9017   -2.4997 H   0  0  0  0  0  0  0  0  0  0  0  0
    0.7331   -0.3626   -3.9466 H   0  0  0  0  0  0  0  0  0  0  0  0
   -0.8450   -0.9775   -4.4061 H   0  0  0  0  0  0  0  0  0  0  0  0
    0.4236   -2.1094   -3.8872 H   0  0  0  0  0  0  0  0  0  0  0  0
   -2.8686    3.0019    3.0132 H   0  0  0  0  0  0  0  0  0  0  0  0
   -4.5450   -1.2265    3.7333 H   0  0  0  0  0  0  0  0  0  0  0  0
   -3.5891   -2.5927    3.1055 H   0  0  0  0  0  0  0  0  0  0  0  0
   -7.1152   -1.6631   -1.7580 H   0  0  0  0  0  0  0  0  0  0  0  0
  1 35  1  0  0  0  0
  2 18  1  0  0  0  0
  2 21  1  0  0  0  0
  3 19  2  0  0  0  0
  4 24  1  0  0  0  0
  4 28  1  0  0  0  0
  5 32  1  0  0  0  0
  5 36  1  0  0  0  0
  6 34  1  0  0  0  0
  6 36  1  0  0  0  0
  7 13  1  0  0  0  0
  7 14  1  0  0  0  0
  7 17  1  0  0  0  0
  8 15  1  0  0  0  0
  8 16  1  0  0  0  0
  8 19  1  0  0  0  0
  9 27  1  0  0  0  0
  9 29  1  0  0  0  0
  9 56  1  0  0  0  0
 10 26  1  0  0  0  0
 10 33  2  0  0  0  0
 11 27  2  0  0  0  0
 11 33  1  0  0  0  0
 12 34  2  0  0  0  0
 12 37  1  0  0  0  0
 13 15  1  0  0  0  0
 13 38  1  0  0  0  0
 13 39  1  0  0  0  0
 14 16  1  0  0  0  0
 14 40  1  0  0  0  0
 14 41  1  0  0  0  0
 15 42  1  0  0  0  0
 15 43  1  0  0  0  0
 16 44  1  0  0  0  0
 16 45  1  0  0  0  0
 17 18  1  0  0  0  0
 17 46  1  0  0  0  0
 17 47  1  0  0  0  0
 18 48  1  0  0  0  0
 18 49  1  0  0  0  0
 19 20  1  0  0  0  0
 20 50  1  0  0  0  0
 20 51  1  0  0  0  0
 20 52  1  0  0  0  0
 21 23  1  0  0  0  0
 21 25  2  0  0  0  0
 22 24  1  0  0  0  0
 22 26  2  0  0  0  0
 22 27  1  0  0  0  0
 23 24  2  0  0  0  0
 23 53  1  0  0  0  0
 25 26  1  0  0  0  0
 25 54  1  0  0  0  0
 28 30  1  0  0  0  0
 28 31  1  0  0  0  0
 28 55  1  0  0  0  0
 29 32  2  0  0  0  0
 29 35  1  0  0  0  0
 30 57  1  0  0  0  0
 30 58  1  0  0  0  0
 30 59  1  0  0  0  0
 31 60  1  0  0  0  0
 31 61  1  0  0  0  0
 31 62  1  0  0  0  0
 32 34  1  0  0  0  0
 33 63  1  0  0  0  0
 35 37  2  0  0  0  0
 36 64  1  0  0  0  0
 36 65  1  0  0  0  0
 37 66  1  0  0  0  0
M  END
> <PUBCHEM_COMPOUND_CID>
9893171

> <PUBCHEM_CONFORMER_RMSD>
1.2

> <PUBCHEM_CONFORMER_DIVERSEORDER>
12
57
49
47
16
60
27
65
82
83
63
25
19
44
67
92
51
84
6
62
13
55
24
54
69
40
86
56
77
35
53
31
87
32
73
75
74
68
93
81
76
59
46
22
61
94
90
14
26
30
70
17
58
71
50
34
39
10
21
79
28
45
78
85
2
91
88
20
33
1
80
23
42
29
72
5
11
37
52
9
41
48
66
43
3
38
95
18
64
36
7
8
4
15
89

> <PUBCHEM_MMFF94_PARTIAL_CHARGES>
39
1 -0.18
10 -0.62
11 -0.62
12 -0.62
13 0.27
14 0.27
15 0.3
16 0.3
17 0.27
18 0.28
19 0.57
2 -0.36
20 0.06
21 0.08
23 -0.15
24 0.08
25 -0.15
26 0.31
27 0.41
28 0.28
29 0.1
3 -0.57
32 0.08
33 0.47
34 0.39
35 0.18
36 0.56
37 0.16
4 -0.36
5 -0.36
53 0.15
54 0.15
56 0.4
6 -0.36
63 0.15
66 0.15
7 -0.81
8 -0.66
9 -0.6

> <PUBCHEM_EFFECTIVE_ROTOR_COUNT>
10.8

> <PUBCHEM_PHARMACOPHORE_FEATURES>
14
1 2 acceptor
1 3 acceptor
1 4 acceptor
1 5 acceptor
1 7 cation
1 9 donor
3 10 11 33 cation
3 28 30 31 hydrophobe
3 9 11 27 cation
5 5 6 32 34 36 rings
6 10 11 22 26 27 33 rings
6 12 29 32 34 35 37 rings
6 21 22 23 24 25 26 rings
6 7 8 13 14 15 16 rings

> <PUBCHEM_HEAVY_ATOM_COUNT>
37

> <PUBCHEM_ATOM_DEF_STEREO_COUNT>
0

> <PUBCHEM_ATOM_UDEF_STEREO_COUNT>
0

> <PUBCHEM_BOND_DEF_STEREO_COUNT>
0

> <PUBCHEM_BOND_UDEF_STEREO_COUNT>
0

> <PUBCHEM_ISOTOPIC_ATOM_COUNT>
0

> <PUBCHEM_COMPONENT_COUNT>
1

> <PUBCHEM_CACTVS_TAUTO_COUNT>
4

> <PUBCHEM_CONFORMER_ID>
0096F5330000000C

> <PUBCHEM_MMFF94_ENERGY>
127.5068

> <PUBCHEM_FEATURE_SELFOVERLAP>
71.363

> <PUBCHEM_SHAPE_FINGERPRINT>
10305334 12 18050573941016370208
117089 54 18266182734671158210
12422481 6 17632029562704932333
12633257 1 16558746841155988560
13383661 66 17606141694752262514
13383668 40 18260832597216216307
13692115 46 14996582663198985475
13782708 43 17895754122887247603
14118638 360 18343022216410458528
14739800 52 13757536382665806047
15510800 12 18259980479529802026
16728300 4 18342736290997582279
19319366 153 17981048832023291748
19841028 212 18335696139905202842
208703 8 18338228255618885362
21033650 10 16009020675564616989
21814621 53 18041544915049710437
23559900 14 17822284747587894061
23569914 2 13684335180317934051
24983565 74 18056469780285420447
2838139 119 11095894726270734896
392239 28 17918279765807197055
42767 28 17749384845532283714
437795 70 16081364163746746645
44880568 143 17022895782968970460
474113 269 18201429286401288359
50009960 94 18262786369143659626
513202 73 18343585118374940977
54039377 194 18339923702892015614
57724786 102 12678881460478146616
6201320 77 18042427805738106931
9896288 288 17771347470433494376

> <PUBCHEM_SHAPE_MULTIPOLES>
704.08
19.04
4.14
2.71
19.32
0.02
0.88
18.8
-4.3
5.07
-2
-4.1
1.27
-1.08

> <PUBCHEM_SHAPE_SELFOVERLAP>
1515.392

> <PUBCHEM_SHAPE_VOLUME>
388.8

> <PUBCHEM_COORDINATE_TYPE>
2
5
10

$$$$
