25174101
  -OEChem-04252316203D

 55 58  0     0  0  0  0  0  0999 V2000
   -0.6024   -2.3744   -0.0128 O   0  0  0  0  0  0  0  0  0  0  0  0
    2.8022    0.3231    0.0964 N   0  0  0  0  0  0  0  0  0  0  0  0
    4.0299   -0.1978   -0.0696 N   0  0  0  0  0  0  0  0  0  0  0  0
    0.4287   -0.2855    0.1942 N   0  0  0  0  0  0  0  0  0  0  0  0
   -1.8662   -0.4363    0.3492 N   0  0  0  0  0  0  0  0  0  0  0  0
    1.0020    4.5992   -1.3056 N   0  0  0  0  0  0  0  0  0  0  0  0
    4.9072   -2.4329   -0.4437 C   0  0  0  0  0  0  0  0  0  0  0  0
    3.7870   -1.5012   -0.2308 C   0  0  0  0  0  0  0  0  0  0  0  0
    4.7884   -3.1870   -1.8124 C   0  0  0  0  0  0  0  0  0  0  0  0
    4.9769   -3.5289    0.6743 C   0  0  0  0  0  0  0  0  0  0  0  0
    6.3437   -1.7921   -0.4644 C   0  0  0  0  0  0  0  0  0  0  0  0
    2.4149   -1.8102   -0.1685 C   0  0  0  0  0  0  0  0  0  0  0  0
    1.8001   -0.6009    0.0459 C   0  0  0  0  0  0  0  0  0  0  0  0
    2.6568    1.6968    0.2967 C   0  0  0  0  0  0  0  0  0  0  0  0
    1.9062    2.4572   -0.6001 C   0  0  0  0  0  0  0  0  0  0  0  0
    3.2624    2.3091    1.3938 C   0  0  0  0  0  0  0  0  0  0  0  0
   -0.6682   -1.1612    0.1580 C   0  0  0  0  0  0  0  0  0  0  0  0
   -3.1801   -0.9189    0.3836 C   0  0  0  0  0  0  0  0  0  0  0  0
   -4.2682   -0.1323   -0.0284 C   0  0  0  0  0  0  0  0  0  0  0  0
    1.7610    3.8298   -0.3993 C   0  0  0  0  0  0  0  0  0  0  0  0
   -5.5745   -0.6737    0.0296 C   0  0  0  0  0  0  0  0  0  0  0  0
    3.1174    3.6819    1.5946 C   0  0  0  0  0  0  0  0  0  0  0  0
    2.3666    4.4421    0.6979 C   0  0  0  0  0  0  0  0  0  0  0  0
   -3.3771   -2.2203    0.8464 C   0  0  0  0  0  0  0  0  0  0  0  0
   -4.0886    1.1795   -0.4968 C   0  0  0  0  0  0  0  0  0  0  0  0
   -5.7543   -1.9855    0.4976 C   0  0  0  0  0  0  0  0  0  0  0  0
   -4.6617   -2.7527    0.9030 C   0  0  0  0  0  0  0  0  0  0  0  0
   -6.6627    0.1127   -0.3824 C   0  0  0  0  0  0  0  0  0  0  0  0
   -5.1813    1.9466   -0.9018 C   0  0  0  0  0  0  0  0  0  0  0  0
   -6.4659    1.4142   -0.8447 C   0  0  0  0  0  0  0  0  0  0  0  0
    3.8609   -3.7690   -1.8629 H   0  0  0  0  0  0  0  0  0  0  0  0
    4.7782   -2.4759   -2.6466 H   0  0  0  0  0  0  0  0  0  0  0  0
    5.6236   -3.8798   -1.9651 H   0  0  0  0  0  0  0  0  0  0  0  0
    5.8113   -4.2201    0.5103 H   0  0  0  0  0  0  0  0  0  0  0  0
    5.1046   -3.0681    1.6608 H   0  0  0  0  0  0  0  0  0  0  0  0
    4.0556   -4.1219    0.7034 H   0  0  0  0  0  0  0  0  0  0  0  0
    7.1214   -2.5469   -0.6269 H   0  0  0  0  0  0  0  0  0  0  0  0
    6.4263   -1.0470   -1.2642 H   0  0  0  0  0  0  0  0  0  0  0  0
    6.5587   -1.2874    0.4848 H   0  0  0  0  0  0  0  0  0  0  0  0
    1.9485   -2.7795   -0.2664 H   0  0  0  0  0  0  0  0  0  0  0  0
    0.2219    0.6935    0.3667 H   0  0  0  0  0  0  0  0  0  0  0  0
    1.4394    1.9886   -1.4644 H   0  0  0  0  0  0  0  0  0  0  0  0
    3.8476    1.7311    2.1051 H   0  0  0  0  0  0  0  0  0  0  0  0
   -1.7543    0.5694    0.2841 H   0  0  0  0  0  0  0  0  0  0  0  0
    3.5880    4.1584    2.4495 H   0  0  0  0  0  0  0  0  0  0  0  0
    2.2608    5.5109    0.8655 H   0  0  0  0  0  0  0  0  0  0  0  0
   -2.5647   -2.8400    1.2121 H   0  0  0  0  0  0  0  0  0  0  0  0
   -3.1124    1.6481   -0.5757 H   0  0  0  0  0  0  0  0  0  0  0  0
   -6.7497   -2.4213    0.5527 H   0  0  0  0  0  0  0  0  0  0  0  0
   -4.8162   -3.7626    1.2721 H   0  0  0  0  0  0  0  0  0  0  0  0
   -7.6756   -0.2830   -0.3466 H   0  0  0  0  0  0  0  0  0  0  0  0
   -5.0292    2.9592   -1.2644 H   0  0  0  0  0  0  0  0  0  0  0  0
   -7.3161    2.0117   -1.1608 H   0  0  0  0  0  0  0  0  0  0  0  0
    0.8962    5.5943   -1.1599 H   0  0  0  0  0  0  0  0  0  0  0  0
    0.5614    4.1560   -2.1008 H   0  0  0  0  0  0  0  0  0  0  0  0
  1 17  2  0  0  0  0
  2  3  1  0  0  0  0
  2 13  1  0  0  0  0
  2 14  1  0  0  0  0
  3  8  2  0  0  0  0
  4 13  1  0  0  0  0
  4 17  1  0  0  0  0
  4 41  1  0  0  0  0
  5 17  1  0  0  0  0
  5 18  1  0  0  0  0
  5 44  1  0  0  0  0
  6 20  1  0  0  0  0
  6 54  1  0  0  0  0
  6 55  1  0  0  0  0
  7  8  1  0  0  0  0
  7  9  1  0  0  0  0
  7 10  1  0  0  0  0
  7 11  1  0  0  0  0
  8 12  1  0  0  0  0
  9 31  1  0  0  0  0
  9 32  1  0  0  0  0
  9 33  1  0  0  0  0
 10 34  1  0  0  0  0
 10 35  1  0  0  0  0
 10 36  1  0  0  0  0
 11 37  1  0  0  0  0
 11 38  1  0  0  0  0
 11 39  1  0  0  0  0
 12 13  2  0  0  0  0
 12 40  1  0  0  0  0
 14 15  1  0  0  0  0
 14 16  2  0  0  0  0
 15 20  2  0  0  0  0
 15 42  1  0  0  0  0
 16 22  1  0  0  0  0
 16 43  1  0  0  0  0
 18 19  1  0  0  0  0
 18 24  2  0  0  0  0
 19 21  1  0  0  0  0
 19 25  2  0  0  0  0
 20 23  1  0  0  0  0
 21 26  1  0  0  0  0
 21 28  2  0  0  0  0
 22 23  2  0  0  0  0
 22 45  1  0  0  0  0
 23 46  1  0  0  0  0
 24 27  1  0  0  0  0
 24 47  1  0  0  0  0
 25 29  1  0  0  0  0
 25 48  1  0  0  0  0
 26 27  2  0  0  0  0
 26 49  1  0  0  0  0
 27 50  1  0  0  0  0
 28 30  1  0  0  0  0
 28 51  1  0  0  0  0
 29 30  2  0  0  0  0
 29 52  1  0  0  0  0
 30 53  1  0  0  0  0
M  END
> <PUBCHEM_COMPOUND_CID>
25174101

> <PUBCHEM_CONFORMER_RMSD>
0.8

> <PUBCHEM_CONFORMER_DIVERSEORDER>
1
48
33
52
20
70
47
82
75
71
24
59
68
22
34
15
45
30
56
11
25
61
57
95
31
54
77
55
64
43
46
27
91
8
60
23
53
58
2
65
51
80
84
9
28
49
67
50
86
3
63
32
19
90
6
40
29
89
94
35
81
12
38
21
7
92
17
13
66
87
5
26
78
36
73
4
83
88
16
69
39
14
76
10
93
79
42
37
41
18
62
72
44
74
85

> <PUBCHEM_MMFF94_PARTIAL_CHARGES>
41
1 -0.57
12 -0.15
13 -0.09
14 -0.02
15 -0.15
16 -0.15
17 0.69
18 0.12
2 0.59
20 0.1
22 -0.15
23 -0.15
24 -0.15
25 -0.15
26 -0.15
27 -0.15
28 -0.15
29 -0.15
3 -0.71
30 -0.15
4 -0.49
40 0.15
41 0.37
42 0.15
43 0.15
44 0.37
45 0.15
46 0.15
47 0.15
48 0.15
49 0.15
5 -0.55
50 0.15
51 0.15
52 0.15
53 0.15
54 0.4
55 0.4
6 -0.9
7 0.18
8 0.11

> <PUBCHEM_EFFECTIVE_ROTOR_COUNT>
6

> <PUBCHEM_PHARMACOPHORE_FEATURES>
11
1 1 acceptor
1 3 acceptor
1 4 donor
1 5 donor
1 6 cation
1 6 donor
4 7 9 10 11 hydrophobe
5 2 3 8 12 13 rings
6 14 15 16 20 22 23 rings
6 18 19 21 24 26 27 rings
6 19 21 25 28 29 30 rings

> <PUBCHEM_HEAVY_ATOM_COUNT>
30

> <PUBCHEM_ATOM_DEF_STEREO_COUNT>
0

> <PUBCHEM_ATOM_UDEF_STEREO_COUNT>
0

> <PUBCHEM_BOND_DEF_STEREO_COUNT>
0

> <PUBCHEM_BOND_UDEF_STEREO_COUNT>
0

> <PUBCHEM_ISOTOPIC_ATOM_COUNT>
0

> <PUBCHEM_COMPONENT_COUNT>
1

> <PUBCHEM_CACTVS_TAUTO_COUNT>
7

> <PUBCHEM_CONFORMER_ID>
0180205500000001

> <PUBCHEM_MMFF94_ENERGY>
121.1078

> <PUBCHEM_FEATURE_SELFOVERLAP>
55.897

> <PUBCHEM_SHAPE_FINGERPRINT>
10763959 59 18410012147816125077
10864689 126 17972303033373913205
11386260 185 18411408515110566781
12166972 35 18202001010461146955
12516196 113 18340206289589924822
12788726 201 17900262996935184658
12925494 130 18336823109987304681
13757389 114 16750731750449122356
14068700 675 17988638532823623688
15021287 119 18201993309664263935
15183329 4 18262521373059937179
15420108 30 17840002359941881600
15439362 3 17836933661712841388
16988056 13 18410574007112338092
16992752 21 18193846943107125494
17844677 252 18411143562935995923
17868525 174 18410289203398069498
18681886 176 18413100645798427715
20238998 120 18342457003061643096
21049683 271 18337965575466301164
21065198 57 18336547217808299707
21133410 127 17753324563536914477
21315764 268 18408881876170846823
2132832 1 17917435280626444560
23559900 14 18410289207851558699
24771750 20 18049175642242953084
249057 3 18410855417885539623
3103668 31 17901387788097276477
340366 18 18202562886499223342
4015057 19 18340759421474428045
4073 2 17968103052799184306
4144715 1 18334300911278528163
42626532 9 17822870769794491531
437815 12 18341615850263159310
508180 173 18260835843187632267
508706 21 17822556249761521789
5104073 3 18335140934241754491
5219985 13 17693093385244239560
57124632 79 18127123302569416680
6086070 43 18335973186828750803
6695519 79 17408543078404456578

> <PUBCHEM_SHAPE_MULTIPOLES>
586.61
16.49
5.74
1.13
16.38
5.67
0.04
-8.96
2.14
-8
-0.15
-0.61
0.3
3.44

> <PUBCHEM_SHAPE_SELFOVERLAP>
1283.86

> <PUBCHEM_SHAPE_VOLUME>
317.5

> <PUBCHEM_COORDINATE_TYPE>
2
5
10

$$$$
