23635314
  -OEChem-04232315293D

 61 64  0     0  0  0  0  0  0999 V2000
  -10.0058   -2.8448   -0.1069 O   0  0  0  0  0  0  0  0  0  0  0  0
   -5.2757    1.4280    0.4536 O   0  0  0  0  0  0  0  0  0  0  0  0
    4.5200    0.0010   -1.2958 O   0  0  0  0  0  0  0  0  0  0  0  0
   -7.8658   -1.0111   -0.5062 N   0  0  0  0  0  0  0  0  0  0  0  0
    6.5518    0.9423   -0.6833 N   0  0  0  0  0  0  0  0  0  0  0  0
    2.3289    2.4906   -0.6831 N   0  0  0  0  0  0  0  0  0  0  0  0
   -8.0939   -1.6545    0.7950 C   0  0  0  0  0  0  0  0  0  0  0  0
   -9.1366   -0.8788   -1.2323 C   0  0  0  0  0  0  0  0  0  0  0  0
   -7.2274    0.2924   -0.3357 C   0  0  0  0  0  0  0  0  0  0  0  0
   -8.7710   -3.0070    0.5920 C   0  0  0  0  0  0  0  0  0  0  0  0
   -9.7900   -2.2491   -1.3868 C   0  0  0  0  0  0  0  0  0  0  0  0
   -5.8657    0.1412    0.3234 C   0  0  0  0  0  0  0  0  0  0  0  0
   -3.9066    1.4851    0.4313 C   0  0  0  0  0  0  0  0  0  0  0  0
   -1.1292    1.6009    0.3864 C   0  0  0  0  0  0  0  0  0  0  0  0
   -3.2734    2.6191   -0.0644 C   0  0  0  0  0  0  0  0  0  0  0  0
   -3.1654    0.4085    0.9046 C   0  0  0  0  0  0  0  0  0  0  0  0
    0.3158    1.6611    0.3631 C   0  0  0  0  0  0  0  0  0  0  0  0
   -1.8799    2.6771   -0.0869 C   0  0  0  0  0  0  0  0  0  0  0  0
   -1.7720    0.4666    0.8821 C   0  0  0  0  0  0  0  0  0  0  0  0
    3.0353    1.8211    0.2553 C   0  0  0  0  0  0  0  0  0  0  0  0
    4.5220    1.9256    0.1737 C   0  0  0  0  0  0  0  0  0  0  0  0
    1.0745    0.9860    1.3112 C   0  0  0  0  0  0  0  0  0  0  0  0
    0.9828    2.3928   -0.6045 C   0  0  0  0  0  0  0  0  0  0  0  0
    2.4620    1.0625    1.2632 C   0  0  0  0  0  0  0  0  0  0  0  0
    7.3948    0.0299   -1.4199 C   0  0  0  0  0  0  0  0  0  0  0  0
    5.1673    0.8476   -0.6850 C   0  0  0  0  0  0  0  0  0  0  0  0
    7.7790   -1.1670   -0.5991 C   0  0  0  0  0  0  0  0  0  0  0  0
    8.9344   -1.1291    0.1728 C   0  0  0  0  0  0  0  0  0  0  0  0
    6.9754   -2.3011   -0.6188 C   0  0  0  0  0  0  0  0  0  0  0  0
    9.2914   -2.2411    0.9356 C   0  0  0  0  0  0  0  0  0  0  0  0
    7.3325   -3.4129    0.1442 C   0  0  0  0  0  0  0  0  0  0  0  0
    8.4905   -3.3828    0.9214 C   0  0  0  0  0  0  0  0  0  0  0  0
   -7.1612   -1.8624    1.3254 H   0  0  0  0  0  0  0  0  0  0  0  0
   -8.7233   -1.0203    1.4326 H   0  0  0  0  0  0  0  0  0  0  0  0
   -9.8168   -0.2097   -0.6892 H   0  0  0  0  0  0  0  0  0  0  0  0
   -8.9642   -0.4535   -2.2275 H   0  0  0  0  0  0  0  0  0  0  0  0
   -7.8515    0.9796    0.2511 H   0  0  0  0  0  0  0  0  0  0  0  0
   -7.0850    0.7733   -1.3123 H   0  0  0  0  0  0  0  0  0  0  0  0
   -8.1276   -3.7041    0.0412 H   0  0  0  0  0  0  0  0  0  0  0  0
   -8.9964   -3.4611    1.5623 H   0  0  0  0  0  0  0  0  0  0  0  0
  -10.7651   -2.1443   -1.8734 H   0  0  0  0  0  0  0  0  0  0  0  0
   -9.1814   -2.9203   -2.0051 H   0  0  0  0  0  0  0  0  0  0  0  0
   -5.9407   -0.2657    1.3354 H   0  0  0  0  0  0  0  0  0  0  0  0
   -5.2552   -0.5249   -0.3010 H   0  0  0  0  0  0  0  0  0  0  0  0
   -3.8551    3.4613   -0.4284 H   0  0  0  0  0  0  0  0  0  0  0  0
   -3.6254   -0.4831    1.3194 H   0  0  0  0  0  0  0  0  0  0  0  0
   -1.4218    3.5906   -0.4563 H   0  0  0  0  0  0  0  0  0  0  0  0
   -1.2275   -0.4028    1.2404 H   0  0  0  0  0  0  0  0  0  0  0  0
    4.7933    2.9003   -0.2518 H   0  0  0  0  0  0  0  0  0  0  0  0
    4.9616    1.8889    1.1783 H   0  0  0  0  0  0  0  0  0  0  0  0
    0.6280    0.4127    2.1185 H   0  0  0  0  0  0  0  0  0  0  0  0
    0.4719    2.9271   -1.3993 H   0  0  0  0  0  0  0  0  0  0  0  0
    3.0647    0.5429    2.0005 H   0  0  0  0  0  0  0  0  0  0  0  0
    8.2867    0.5855   -1.7315 H   0  0  0  0  0  0  0  0  0  0  0  0
    6.8817   -0.2838   -2.3370 H   0  0  0  0  0  0  0  0  0  0  0  0
    7.0011    1.6679   -0.1320 H   0  0  0  0  0  0  0  0  0  0  0  0
    9.5647   -0.2443    0.1930 H   0  0  0  0  0  0  0  0  0  0  0  0
    6.0732   -2.3394   -1.2223 H   0  0  0  0  0  0  0  0  0  0  0  0
   10.1927   -2.2176    1.5411 H   0  0  0  0  0  0  0  0  0  0  0  0
    6.7094   -4.3024    0.1327 H   0  0  0  0  0  0  0  0  0  0  0  0
    8.7685   -4.2486    1.5152 H   0  0  0  0  0  0  0  0  0  0  0  0
  1 10  1  0  0  0  0
  1 11  1  0  0  0  0
  2 12  1  0  0  0  0
  2 13  1  0  0  0  0
  3 26  2  0  0  0  0
  4  7  1  0  0  0  0
  4  8  1  0  0  0  0
  4  9  1  0  0  0  0
  5 25  1  0  0  0  0
  5 26  1  0  0  0  0
  5 56  1  0  0  0  0
  6 20  2  0  0  0  0
  6 23  1  0  0  0  0
  7 10  1  0  0  0  0
  7 33  1  0  0  0  0
  7 34  1  0  0  0  0
  8 11  1  0  0  0  0
  8 35  1  0  0  0  0
  8 36  1  0  0  0  0
  9 12  1  0  0  0  0
  9 37  1  0  0  0  0
  9 38  1  0  0  0  0
 10 39  1  0  0  0  0
 10 40  1  0  0  0  0
 11 41  1  0  0  0  0
 11 42  1  0  0  0  0
 12 43  1  0  0  0  0
 12 44  1  0  0  0  0
 13 15  2  0  0  0  0
 13 16  1  0  0  0  0
 14 17  1  0  0  0  0
 14 18  2  0  0  0  0
 14 19  1  0  0  0  0
 15 18  1  0  0  0  0
 15 45  1  0  0  0  0
 16 19  2  0  0  0  0
 16 46  1  0  0  0  0
 17 22  1  0  0  0  0
 17 23  2  0  0  0  0
 18 47  1  0  0  0  0
 19 48  1  0  0  0  0
 20 21  1  0  0  0  0
 20 24  1  0  0  0  0
 21 26  1  0  0  0  0
 21 49  1  0  0  0  0
 21 50  1  0  0  0  0
 22 24  2  0  0  0  0
 22 51  1  0  0  0  0
 23 52  1  0  0  0  0
 24 53  1  0  0  0  0
 25 27  1  0  0  0  0
 25 54  1  0  0  0  0
 25 55  1  0  0  0  0
 27 28  2  0  0  0  0
 27 29  1  0  0  0  0
 28 30  1  0  0  0  0
 28 57  1  0  0  0  0
 29 31  2  0  0  0  0
 29 58  1  0  0  0  0
 30 32  2  0  0  0  0
 30 59  1  0  0  0  0
 31 32  1  0  0  0  0
 31 60  1  0  0  0  0
 32 61  1  0  0  0  0
M  END
> <PUBCHEM_COMPOUND_CID>
23635314

> <PUBCHEM_CONFORMER_RMSD>
1

> <PUBCHEM_CONFORMER_DIVERSEORDER>
2
199
342
336
397
22
160
293
185
243
404
162
172
231
208
251
292
181
197
31
303
277
146
69
275
358
410
229
305
259
300
364
232
67
323
147
194
302
8
247
204
319
405
206
218
258
412
380
400
286
101
4
217
363
51
354
119
202
228
165
214
249
98
131
242
383
287
406
239
128
179
190
105
167
262
234
13
309
5
196
174
106
246
156
143
345
169
233
41
347
184
312
107
75
171
3
120
240
264
149
378
103
398
304
254
151
371
73
288
223
163
261
407
245
157
138
282
170
187
227
12
96
78
255
360
118
260
175
209
183
356
15
180
129
272
395
102
127
289
222
64
331
257
385
317
256
391
27
29
115
362
265
186
166
132
328
35
62
37
349
97
379
117
192
393
238
366
326
104
321
81
193
111
124
191
6
390
48
141
142
399
396
388
159
93
403
88
224
182
392
375
133
225
140
74
70
173
36
313
269
80
116
100
351
207
352
21
161
365
201
213
350
230
30
1
63
368
14
177
137
244
338
376
89
384
211
274
139
47
215
241
210
408
283
126
25
52
332
276
195
284
341
296
205
221
325
377
130
340
290
66
310
76
334
53
327
250
369
267
92
144
91
402
348
330
154
189
386
125
136
99
401
271
281
346
59
253
235
42
18
411
10
38
198
188
279
311
353
87
373
71
299
252
23
306
9
49
40
413
110
318
219
355
389
43
268
415
168
324
60
7
307
135
382
39
77
16
200
65
11
90
301
164
298
414
123
216
322
86
57
357
85
176
32
50
82
344
178
226
68
122
84
26
61
297
112
148
266
95
361
17
94
237
367
44
291
150
28
79
294
409
113
372
83
320
343
158
108
285
315
270
314
212
203
54
58
34
56
387
359
278
72
145
109
24
134
155
19
153
370
220
295
33
121
45
280
55
308
20
248
335
337
114
46
339
152
374
329
381
333
273
263
236
394
316

> <PUBCHEM_MMFF94_PARTIAL_CHARGES>
43
1 -0.56
10 0.28
11 0.28
12 0.28
13 0.08
15 -0.15
16 -0.15
18 -0.15
19 -0.15
2 -0.36
20 0.17
21 0.2
22 -0.15
23 0.16
24 -0.15
25 0.44
26 0.57
27 -0.14
28 -0.15
29 -0.15
3 -0.57
30 -0.15
31 -0.15
32 -0.15
4 -0.81
45 0.15
46 0.15
47 0.15
48 0.15
5 -0.73
51 0.15
52 0.15
53 0.15
56 0.37
57 0.15
58 0.15
59 0.15
6 -0.62
60 0.15
61 0.15
7 0.27
8 0.27
9 0.27

> <PUBCHEM_EFFECTIVE_ROTOR_COUNT>
11.2

> <PUBCHEM_PHARMACOPHORE_FEATURES>
10
1 1 acceptor
1 2 acceptor
1 3 acceptor
1 4 cation
1 5 donor
1 6 acceptor
6 1 4 7 8 10 11 rings
6 13 14 15 16 18 19 rings
6 27 28 29 30 31 32 rings
6 6 17 20 22 23 24 rings

> <PUBCHEM_HEAVY_ATOM_COUNT>
32

> <PUBCHEM_ATOM_DEF_STEREO_COUNT>
0

> <PUBCHEM_ATOM_UDEF_STEREO_COUNT>
0

> <PUBCHEM_BOND_DEF_STEREO_COUNT>
0

> <PUBCHEM_BOND_UDEF_STEREO_COUNT>
0

> <PUBCHEM_ISOTOPIC_ATOM_COUNT>
0

> <PUBCHEM_COMPONENT_COUNT>
1

> <PUBCHEM_CACTVS_TAUTO_COUNT>
5

> <PUBCHEM_CONFORMER_ID>
0168A57200000002

> <PUBCHEM_MMFF94_ENERGY>
87.881

> <PUBCHEM_FEATURE_SELFOVERLAP>
50.748

> <PUBCHEM_SHAPE_FINGERPRINT>
10 15 12103839043298298660
10066227 49 18409168831309367303
10952577 141 8285901503128761850
11181472 205 11819538312671335581
11386260 185 16950569933995511908
11456790 92 16056882437847811889
11497681 19 18407759218574045893
11607047 74 18120375612542825524
11621639 179 12829788340395590814
12013929 112 14923944522674279066
12013929 94 18342741798406243182
12120059 9 18113334241488264744
12539765 74 8070026675507695912
13383668 254 10951770734413846819
13627175 4 18201992253450494463
14026016 60 17749101150690879826
14359421 15 18260264153656985955
15183329 4 16443638883672701920
15198563 99 16081365211423622084
15392192 104 17060625499840085596
1754908 1 15123789578384333575
2026 5 18338518526150801354
20721686 146 8070020082816357178
21130935 74 18055918693963956754
21130991 4 18409726253155075690
212700 22 18335414716710868099
21362857 166 18334015007873939964
21585482 111 9151174251164554615
21895431 317 18341612594430964471
21987483 16 18272928333249318656
22002106 203 18411694387674650650
23569917 315 18409453622223201939
23569943 247 18120376445949876506
23576562 1 15720249447149948645
25025965 108 18130497605451270519
25242607 90 17846777442674787597
3711267 37 8286207184156491839
406291 66 18413389834831073197
4339292 15 18342171164049766141
437795 150 17241336910212815483
439807 62 18411420626860045814
54039377 194 18412260636642873247
5718773 13 18410858733304990364
6081469 158 18040435486035843028
6204607 403 11239128171390772738
636775 72 9151181944173440887
6438161 24 18410573955967784776
9962374 69 18201434809143798116

> <PUBCHEM_SHAPE_MULTIPOLES>
625.99
38.81
4.04
1.18
25.99
2.29
-0.09
50.18
-6.35
-0.86
0.25
-0.14
0.2
-2.08

> <PUBCHEM_SHAPE_SELFOVERLAP>
1338.119

> <PUBCHEM_SHAPE_VOLUME>
345.1

> <PUBCHEM_COORDINATE_TYPE>
2
5
10

$$$$
