24821094
  -OEChem-04252316473D

 57 61  0     1  0  0  0  0  0999 V2000
   -7.6602   -1.7062   -0.1885 O   0  0  0  0  0  0  0  0  0  0  0  0
    4.9849   -1.8094   -1.0137 O   0  0  0  0  0  0  0  0  0  0  0  0
   -5.3735   -1.4666    0.1578 N   0  0  0  0  0  0  0  0  0  0  0  0
   -2.0934    0.4595    0.5165 N   0  0  0  0  0  0  0  0  0  0  0  0
   -1.0736   -0.3986    0.3286 N   0  0  0  0  0  0  0  0  0  0  0  0
   -2.5423    2.8385    0.4755 N   0  0  0  0  0  0  0  0  0  0  0  0
   -0.5439    4.1240   -0.0762 N   0  0  0  0  0  0  0  0  0  0  0  0
    1.5679    3.1012   -0.5133 N   0  0  0  0  0  0  0  0  0  0  0  0
   -3.4659   -0.0771    0.8739 C   0  0  2  0  0  0  0  0  0  0  0  0
   -3.4571   -0.8194    2.2254 C   0  0  0  0  0  0  0  0  0  0  0  0
   -4.0398   -0.9823   -0.2298 C   0  0  0  0  0  0  0  0  0  0  0  0
   -4.8433   -1.3788    2.5555 C   0  0  0  0  0  0  0  0  0  0  0  0
   -5.3893   -2.2275    1.4092 C   0  0  0  0  0  0  0  0  0  0  0  0
   -1.7430    1.7668    0.3530 C   0  0  0  0  0  0  0  0  0  0  0  0
   -0.3962    1.7643    0.0349 C   0  0  0  0  0  0  0  0  0  0  0  0
   -6.5610   -1.2760   -0.5422 C   0  0  0  0  0  0  0  0  0  0  0  0
   -0.0430    0.4021    0.0356 C   0  0  0  0  0  0  0  0  0  0  0  0
    0.2043    2.9998   -0.1835 C   0  0  0  0  0  0  0  0  0  0  0  0
    1.2526   -0.1683   -0.2351 C   0  0  0  0  0  0  0  0  0  0  0  0
   -6.5034   -0.4966   -1.7947 C   0  0  0  0  0  0  0  0  0  0  0  0
   -1.8520    3.9756    0.2422 C   0  0  0  0  0  0  0  0  0  0  0  0
    2.1563   -0.3716    0.8078 C   0  0  0  0  0  0  0  0  0  0  0  0
    1.6027   -0.5174   -1.5394 C   0  0  0  0  0  0  0  0  0  0  0  0
   -7.3764   -0.7719   -2.7661 C   0  0  0  0  0  0  0  0  0  0  0  0
    3.4101   -0.9240    0.5465 C   0  0  0  0  0  0  0  0  0  0  0  0
    2.8567   -1.0699   -1.8008 C   0  0  0  0  0  0  0  0  0  0  0  0
    3.7603   -1.2731   -0.7578 C   0  0  0  0  0  0  0  0  0  0  0  0
    6.0850   -1.2150   -0.4189 C   0  0  0  0  0  0  0  0  0  0  0  0
    6.2131    0.1741   -0.4199 C   0  0  0  0  0  0  0  0  0  0  0  0
    7.0655   -2.0053    0.1810 C   0  0  0  0  0  0  0  0  0  0  0  0
    7.3217    0.7728    0.1786 C   0  0  0  0  0  0  0  0  0  0  0  0
    8.1741   -1.4065    0.7796 C   0  0  0  0  0  0  0  0  0  0  0  0
    8.3022   -0.0175    0.7784 C   0  0  0  0  0  0  0  0  0  0  0  0
   -4.1027    0.8121    0.9688 H   0  0  0  0  0  0  0  0  0  0  0  0
   -3.1311   -0.1420    3.0236 H   0  0  0  0  0  0  0  0  0  0  0  0
   -2.7335   -1.6441    2.1990 H   0  0  0  0  0  0  0  0  0  0  0  0
   -4.0479   -0.4547   -1.1847 H   0  0  0  0  0  0  0  0  0  0  0  0
   -3.4071   -1.8673   -0.3754 H   0  0  0  0  0  0  0  0  0  0  0  0
   -4.7941   -1.9769    3.4720 H   0  0  0  0  0  0  0  0  0  0  0  0
   -5.5283   -0.5438    2.7484 H   0  0  0  0  0  0  0  0  0  0  0  0
   -6.4019   -2.5654    1.6506 H   0  0  0  0  0  0  0  0  0  0  0  0
   -4.7711   -3.1210    1.2619 H   0  0  0  0  0  0  0  0  0  0  0  0
   -5.8002    0.3170   -1.9105 H   0  0  0  0  0  0  0  0  0  0  0  0
   -2.4216    4.8955    0.3198 H   0  0  0  0  0  0  0  0  0  0  0  0
    1.8968   -0.1088    1.8306 H   0  0  0  0  0  0  0  0  0  0  0  0
    0.9100   -0.3645   -2.3637 H   0  0  0  0  0  0  0  0  0  0  0  0
    1.9647    4.0190   -0.6637 H   0  0  0  0  0  0  0  0  0  0  0  0
    2.1505    2.2815   -0.5998 H   0  0  0  0  0  0  0  0  0  0  0  0
   -8.1097   -1.5674   -2.6907 H   0  0  0  0  0  0  0  0  0  0  0  0
   -7.3647   -0.1929   -3.6838 H   0  0  0  0  0  0  0  0  0  0  0  0
    4.0851   -1.0919    1.3816 H   0  0  0  0  0  0  0  0  0  0  0  0
    3.1245   -1.3388   -2.8190 H   0  0  0  0  0  0  0  0  0  0  0  0
    5.4756    0.8126   -0.8991 H   0  0  0  0  0  0  0  0  0  0  0  0
    6.9707   -3.0876    0.1850 H   0  0  0  0  0  0  0  0  0  0  0  0
    7.4241    1.8540    0.1735 H   0  0  0  0  0  0  0  0  0  0  0  0
    8.9377   -2.0218    1.2464 H   0  0  0  0  0  0  0  0  0  0  0  0
    9.1659    0.4486    1.2433 H   0  0  0  0  0  0  0  0  0  0  0  0
  1 16  2  0  0  0  0
  2 27  1  0  0  0  0
  2 28  1  0  0  0  0
  3 11  1  0  0  0  0
  3 13  1  0  0  0  0
  3 16  1  0  0  0  0
  4  5  1  0  0  0  0
  4  9  1  0  0  0  0
  4 14  1  0  0  0  0
  5 17  2  0  0  0  0
  6 14  2  0  0  0  0
  6 21  1  0  0  0  0
  7 18  1  0  0  0  0
  7 21  2  0  0  0  0
  8 18  1  0  0  0  0
  8 47  1  0  0  0  0
  8 48  1  0  0  0  0
  9 10  1  0  0  0  0
  9 11  1  0  0  0  0
  9 34  1  0  0  0  0
 10 12  1  0  0  0  0
 10 35  1  0  0  0  0
 10 36  1  0  0  0  0
 11 37  1  0  0  0  0
 11 38  1  0  0  0  0
 12 13  1  0  0  0  0
 12 39  1  0  0  0  0
 12 40  1  0  0  0  0
 13 41  1  0  0  0  0
 13 42  1  0  0  0  0
 14 15  1  0  0  0  0
 15 17  1  0  0  0  0
 15 18  2  0  0  0  0
 16 20  1  0  0  0  0
 17 19  1  0  0  0  0
 19 22  2  0  0  0  0
 19 23  1  0  0  0  0
 20 24  2  0  0  0  0
 20 43  1  0  0  0  0
 21 44  1  0  0  0  0
 22 25  1  0  0  0  0
 22 45  1  0  0  0  0
 23 26  2  0  0  0  0
 23 46  1  0  0  0  0
 24 49  1  0  0  0  0
 24 50  1  0  0  0  0
 25 27  2  0  0  0  0
 25 51  1  0  0  0  0
 26 27  1  0  0  0  0
 26 52  1  0  0  0  0
 28 29  2  0  0  0  0
 28 30  1  0  0  0  0
 29 31  1  0  0  0  0
 29 53  1  0  0  0  0
 30 32  2  0  0  0  0
 30 54  1  0  0  0  0
 31 33  2  0  0  0  0
 31 55  1  0  0  0  0
 32 33  1  0  0  0  0
 32 56  1  0  0  0  0
 33 57  1  0  0  0  0
M  END
> <PUBCHEM_COMPOUND_CID>
24821094

> <PUBCHEM_CONFORMER_RMSD>
1

> <PUBCHEM_CONFORMER_DIVERSEORDER>
1
53
29
33
10
43
56
26
69
8
42
55
37
41
47
17
64
45
12
27
58
65
44
70
32
34
19
72
50
35
7
9
28
60
30
13
46
15
31
57
11
39
51
54
2
24
68
63
5
49
25
36
71
67
4
59
18
20
40
61
66
52
48
21
16
22
62
23
6
3
14
38

> <PUBCHEM_MMFF94_PARTIAL_CHARGES>
45
1 -0.57
11 0.3
13 0.3
14 0.11
16 0.62
17 0.23
18 0.41
19 0.05
2 -0.17
20 -0.14
21 0.47
22 -0.15
23 -0.15
24 -0.3
25 -0.15
26 -0.15
27 0.08
28 0.08
29 -0.15
3 -0.66
30 -0.15
31 -0.15
32 -0.15
33 -0.15
4 0.31
43 0.15
44 0.15
45 0.15
46 0.15
47 0.4
48 0.4
49 0.15
5 -0.71
50 0.15
51 0.15
52 0.15
53 0.15
54 0.15
55 0.15
56 0.15
57 0.15
6 -0.57
7 -0.62
8 -0.9
9 0.26

> <PUBCHEM_EFFECTIVE_ROTOR_COUNT>
7.2

> <PUBCHEM_PHARMACOPHORE_FEATURES>
13
1 1 acceptor
1 2 acceptor
1 24 hydrophobe
1 5 acceptor
1 8 cation
1 8 donor
3 4 6 14 cation
3 6 7 21 cation
5 4 5 14 15 17 rings
6 19 22 23 25 26 27 rings
6 28 29 30 31 32 33 rings
6 3 9 10 11 12 13 rings
6 6 7 14 15 18 21 rings

> <PUBCHEM_HEAVY_ATOM_COUNT>
33

> <PUBCHEM_ATOM_DEF_STEREO_COUNT>
1

> <PUBCHEM_ATOM_UDEF_STEREO_COUNT>
0

> <PUBCHEM_BOND_DEF_STEREO_COUNT>
0

> <PUBCHEM_BOND_UDEF_STEREO_COUNT>
0

> <PUBCHEM_ISOTOPIC_ATOM_COUNT>
0

> <PUBCHEM_COMPONENT_COUNT>
1

> <PUBCHEM_CACTVS_TAUTO_COUNT>
5

> <PUBCHEM_CONFORMER_ID>
017ABD6600000001

> <PUBCHEM_MMFF94_ENERGY>
96.2138

> <PUBCHEM_FEATURE_SELFOVERLAP>
66.252

> <PUBCHEM_SHAPE_FINGERPRINT>
10 15 12031791366255324887
10369192 42 10663824070452933547
10577160 103 18336256916299626461
10674148 151 14056715751557583062
11135926 11 17895196563202595171
11410812 94 16588293961320700820
11672396 167 18190453854386966146
12166972 35 17168155563387149620
12202916 173 18411420618070339631
12218070 45 17489306442408131719
12758862 11 17385720322715850765
12857493 111 18408318899984450797
13782708 43 18057900043624090070
13914758 101 15430033253839919422
1454969 45 18202283628136613182
14849402 71 15697708316277633850
15183329 4 8142090836581624058
15188451 53 17894632544229214074
16087824 20 18265897948696876289
16992727 255 17823693067612549885
20105231 36 12319457718854099652
21792961 116 17749109981064298043
21814621 53 15864643888987336052
23389318 12 18131063879123101918
23559900 14 18041282192137155137
249057 25 17894926092380073900
25019877 29 17418097620254950390
3633792 109 16950838112064339258
38570 142 12251899304932542415
3986486 107 18264750123070795757
4144715 1 17908150880968528946
4280585 95 18411419531590423239
4339292 15 18272650096356741310
4938544 92 16199880462423403819
508180 173 15285360630406421293
5104073 3 18195818367032832314
57035037 87 16805603720199367564
57527295 17 18041260112348908251
5969126 39 18341610391418060013
6086070 43 13190350083846471268
6126387 218 18131352990989397643
613672 6 18339375110164990511
6698420 124 11241972559919131879
9663363 56 18411697695358527179
9689198 14 12679465291982798926

> <PUBCHEM_SHAPE_MULTIPOLES>
637.5
22.85
3.4
1.76
16.06
5.06
-0.16
-17.52
-2.26
-1.88
0.31
-3.58
-1.02
0.44

> <PUBCHEM_SHAPE_SELFOVERLAP>
1400.617

> <PUBCHEM_SHAPE_VOLUME>
340.5

> <PUBCHEM_COORDINATE_TYPE>
2
5
10

$$$$
